project_wecc/results_sec/ref_38.json
{"conductor_ids":[1],"arcs_to":{},"bus_gens":{"16":[],"21":[],"26":[],"25":[],"35":[6],"34":[5],"29":[],"19":[],"17":[],"22":[],"24":[],"37":[8],"28":[],"38":[9],"20":[],"23":[],"27":[],"36":[7],"15":[],"33":[4]},"switch":{},"bus_arcs":{"16":[[29,16,24],[26,16,17],[28,16,21],[27,16,19],[25,16,15]],"21":[[35,21,22],[28,21,16]],"26":[[42,26,27],[44,26,29],[43,26,28],[40,26,25]],"25":[[40,25,26],[41,25,37]],"35":[[37,35,22]],"34":[[34,34,20]],"29":[[46,29,38],[44,29,26],[45,29,28]],"19":[[33,19,33],[32,19,20],[27,19,16]],"17":[[31,17,27],[26,17,16]],"22":[[37,22,35],[36,22,23],[35,22,21]],"24":[[29,24,16],[38,24,23]],"37":[[41,37,25]],"28":[[45,28,29],[43,28,26]],"38":[[46,38,29]],"20":[[34,20,34],[32,20,19]],"23":[[39,23,36],[38,23,24],[36,23,22]],"27":[[42,27,26],[31,27,17]],"36":[[39,36,23]],"15":[[25,15,16]],"33":[[33,33,19]]},"buspairs":{"(28, 29)":{"vm_to_min":0.94,"vm_fr_min":0.94,"angmin":-1.0472,"branch":45,"angmax":1.0472,"rate_a":6.0,"tap":1.0,"vm_to_max":1.06,"vm_fr_max":1.06},"(26, 29)":{"vm_to_min":0.94,"vm_fr_min":0.94,"angmin":-1.0472,"branch":44,"angmax":1.0472,"rate_a":6.0,"tap":1.0,"vm_to_max":1.06,"vm_fr_max":1.06},"(23, 24)":{"vm_to_min":0.94,"vm_fr_min":0.94,"angmin":-1.0472,"branch":38,"angmax":1.0472,"rate_a":6.0,"tap":1.0,"vm_to_max":1.06,"vm_fr_max":1.06},"(17, 27)":{"vm_to_min":0.94,"vm_fr_min":0.94,"angmin":-1.0472,"branch":31,"angmax":1.0472,"rate_a":6.0,"tap":1.0,"vm_to_max":1.06,"vm_fr_max":1.06},"(16, 21)":{"vm_to_min":0.94,"vm_fr_min":0.94,"angmin":-1.0472,"branch":28,"angmax":1.0472,"rate_a":6.0,"tap":1.0,"vm_to_max":1.06,"vm_fr_max":1.06},"(25, 37)":{"vm_to_min":0.94,"vm_fr_min":0.94,"angmin":-1.0472,"branch":41,"angmax":1.0472,"rate_a":9.0,"tap":1.025,"vm_to_max":1.06,"vm_fr_max":1.06},"(19, 33)":{"vm_to_min":0.94,"vm_fr_min":0.94,"angmin":-1.0472,"branch":33,"angmax":1.0472,"rate_a":9.0,"tap":1.07,"vm_to_max":1.06,"vm_fr_max":1.06},"(21, 22)":{"vm_to_min":0.94,"vm_fr_min":0.94,"angmin":-1.0472,"branch":35,"angmax":1.0472,"rate_a":9.0,"tap":1.0,"vm_to_max":1.06,"vm_fr_max":1.06},"(15, 16)":{"vm_to_min":0.94,"vm_fr_min":0.94,"angmin":-1.0472,"branch":25,"angmax":1.0472,"rate_a":6.0,"tap":1.0,"vm_to_max":1.06,"vm_fr_max":1.06},"(16, 24)":{"vm_to_min":0.94,"vm_fr_min":0.94,"angmin":-1.0472,"branch":29,"angmax":1.0472,"rate_a":6.0,"tap":1.0,"vm_to_max":1.06,"vm_fr_max":1.06},"(26, 27)":{"vm_to_min":0.94,"vm_fr_min":0.94,"angmin":-1.0472,"branch":42,"angmax":1.0472,"rate_a":6.0,"tap":1.0,"vm_to_max":1.06,"vm_fr_max":1.06},"(16, 17)":{"vm_to_min":0.94,"vm_fr_min":0.94,"angmin":-1.0472,"branch":26,"angmax":1.0472,"rate_a":6.0,"tap":1.0,"vm_to_max":1.06,"vm_fr_max":1.06},"(20, 34)":{"vm_to_min":0.94,"vm_fr_min":0.94,"angmin":-1.0472,"branch":34,"angmax":1.0472,"rate_a":9.0,"tap":1.009,"vm_to_max":1.06,"vm_fr_max":1.06},"(29, 38)":{"vm_to_min":0.94,"vm_fr_min":0.94,"angmin":-1.0472,"branch":46,"angmax":1.0472,"rate_a":12.0,"tap":1.025,"vm_to_max":1.06,"vm_fr_max":1.06},"(22, 23)":{"vm_to_min":0.94,"vm_fr_min":0.94,"angmin":-1.0472,"branch":36,"angmax":1.0472,"rate_a":6.0,"tap":1.0,"vm_to_max":1.06,"vm_fr_max":1.06},"(16, 19)":{"vm_to_min":0.94,"vm_fr_min":0.94,"angmin":-1.0472,"branch":27,"angmax":1.0472,"rate_a":6.0,"tap":1.0,"vm_to_max":1.06,"vm_fr_max":1.06},"(25, 26)":{"vm_to_min":0.94,"vm_fr_min":0.94,"angmin":-1.0472,"branch":40,"angmax":1.0472,"rate_a":6.0,"tap":1.0,"vm_to_max":1.06,"vm_fr_max":1.06},"(19, 20)":{"vm_to_min":0.94,"vm_fr_min":0.94,"angmin":-1.0472,"branch":32,"angmax":1.0472,"rate_a":9.0,"tap":1.06,"vm_to_max":1.06,"vm_fr_max":1.06},"(26, 28)":{"vm_to_min":0.94,"vm_fr_min":0.94,"angmin":-1.0472,"branch":43,"angmax":1.0472,"rate_a":6.0,"tap":1.0,"vm_to_max":1.06,"vm_fr_max":1.06},"(23, 36)":{"vm_to_min":0.94,"vm_fr_min":0.94,"angmin":-1.0472,"branch":39,"angmax":1.0472,"rate_a":9.0,"tap":1.0,"vm_to_max":1.06,"vm_fr_max":1.06},"(22, 35)":{"vm_to_min":0.94,"vm_fr_min":0.94,"angmin":-1.0472,"branch":37,"angmax":1.0472,"rate_a":9.0,"tap":1.025,"vm_to_max":1.06,"vm_fr_max":1.06}},"bus":{"16":{"zone":1,"bus_i":16,"bus_type":1,"vmax":1.06,"source_id":["bus",16],"area":3,"vmin":0.94,"index":16,"va":-0.17511495759838802,"vm":1.0325203,"base_kv":345.0},"21":{"zone":1,"bus_i":21,"bus_type":1,"vmax":1.06,"source_id":["bus",21],"area":3,"vmin":0.94,"index":21,"va":-0.1331467372436766,"vm":1.0323192,"base_kv":345.0},"26":{"zone":1,"bus_i":26,"bus_type":1,"vmax":1.06,"source_id":["bus",26],"area":2,"vmin":0.94,"index":26,"va":-0.16473760685714817,"vm":1.0525613,"base_kv":345.0},"25":{"zone":1,"bus_i":25,"bus_type":1,"vmax":1.06,"source_id":["bus",25],"area":2,"vmin":0.94,"index":25,"va":-0.14607071360446466,"vm":1.0576827,"base_kv":345.0},"35":{"zone":1,"bus_i":35,"bus_type":2,"vmax":1.06,"source_id":["bus",35],"area":3,"vmin":0.94,"index":35,"va":0.03100589458939765,"vm":1.0494,"base_kv":345.0},"34":{"zone":1,"bus_i":34,"bus_type":2,"vmax":1.06,"source_id":["bus",34],"area":3,"vmin":0.94,"index":34,"va":-0.028468397041837387,"vm":1.0123,"base_kv":345.0},"29":{"zone":1,"bus_i":29,"bus_type":1,"vmax":1.06,"source_id":["bus",29],"area":3,"vmin":0.94,"index":29,"va":-0.05532473991869198,"vm":1.0501149,"base_kv":345.0},"19":{"zone":1,"bus_i":19,"bus_type":1,"vmax":1.06,"source_id":["bus",19],"area":3,"vmin":0.94,"index":19,"va":-0.09442358487791794,"vm":1.0501068,"base_kv":345.0},"17":{"zone":1,"bus_i":17,"bus_type":1,"vmax":1.06,"source_id":["bus",17],"area":2,"vmin":0.94,"index":17,"va":-0.19401840928722838,"vm":1.0342365,"base_kv":345.0},"22":{"zone":1,"bus_i":22,"bus_type":1,"vmax":1.06,"source_id":["bus",22],"area":3,"vmin":0.94,"index":22,"va":-0.05555592274075265,"vm":1.0501427,"base_kv":345.0},"24":{"zone":1,"bus_i":24,"bus_type":1,"vmax":1.06,"source_id":["bus",24],"area":3,"vmin":0.94,"index":24,"va":-0.17302772707257427,"vm":1.038001,"base_kv":345.0},"37":{"zone":1,"bus_i":37,"bus_type":2,"vmax":1.06,"source_id":["bus",37],"area":2,"vmin":0.94,"index":37,"va":-0.027626795785867218,"vm":1.0275,"base_kv":345.0},"28":{"zone":1,"bus_i":28,"bus_type":1,"vmax":1.06,"source_id":["bus",28],"area":3,"vmin":0.94,"index":28,"va":-0.10346938728089702,"vm":1.0503737,"base_kv":345.0},"38":{"zone":1,"bus_i":38,"bus_type":2,"vmax":1.06,"source_id":["bus",38],"area":3,"vmin":0.94,"index":38,"va":0.06794248604491286,"vm":1.0265,"base_kv":345.0},"20":{"zone":1,"bus_i":20,"bus_type":1,"vmax":1.06,"source_id":["bus",20],"area":3,"vmin":0.94,"index":20,"va":-0.11905202020058953,"vm":0.99101054,"base_kv":345.0},"23":{"zone":1,"bus_i":23,"bus_type":1,"vmax":1.06,"source_id":["bus",23],"area":3,"vmin":0.94,"index":23,"va":-0.059014404354651544,"vm":1.0451451,"base_kv":345.0},"27":{"zone":1,"bus_i":27,"bus_type":1,"vmax":1.06,"source_id":["bus",27],"area":2,"vmin":0.94,"index":27,"va":-0.19830696251205876,"vm":1.0383449,"base_kv":345.0},"36":{"zone":1,"bus_i":36,"bus_type":2,"vmax":1.06,"source_id":["bus",36],"area":3,"vmin":0.94,"index":36,"va":0.07798894504925487,"vm":1.0636,"base_kv":345.0},"15":{"zone":1,"bus_i":15,"bus_type":1,"vmax":1.06,"source_id":["bus",15],"area":3,"vmin":0.94,"index":15,"va":-0.19801456750247215,"vm":1.0161854,"base_kv":345.0},"33":{"zone":1,"bus_i":33,"bus_type":2,"vmax":1.06,"source_id":["bus",33],"area":3,"vmin":0.94,"index":33,"va":-0.00337153018322916,"vm":0.9972,"base_kv":345.0}},"dcline":{},"arcs_to_dc":{},"arcs_to_sw":{},"storage":{},"bus_loads":{"16":[9],"21":[12],"26":[16],"25":[15],"35":[],"34":[],"29":[19],"19":[],"17":[],"22":[],"24":[14],"37":[],"28":[18],"38":[],"20":[11],"23":[13],"27":[17],"36":[],"15":[8],"33":[]},"branch":{"32":{"br_r":0.0007,"rate_a":9.0,"shift":0.0,"rate_b":9.0,"br_x":0.0138,"rate_c":25.0,"g_to":0.0,"g_fr":0.0,"source_id":["branch",32],"b_fr":0.0,"f_bus":19,"br_status":1,"t_bus":20,"b_to":0.0,"index":32,"angmin":-1.0472,"angmax":1.0472,"transformer":true,"tap":1.06},"40":{"br_r":0.0032,"rate_a":6.0,"shift":0.0,"rate_b":6.0,"br_x":0.0323,"rate_c":6.0,"g_to":0.0,"g_fr":0.0,"source_id":["branch",40],"b_fr":0.2655,"f_bus":25,"br_status":1,"t_bus":26,"b_to":0.2655,"index":40,"angmin":-1.0472,"angmax":1.0472,"transformer":false,"tap":1.0},"39":{"br_r":0.0005,"rate_a":9.0,"shift":0.0,"rate_b":9.0,"br_x":0.0272,"rate_c":25.0,"g_to":0.0,"g_fr":0.0,"source_id":["branch",39],"b_fr":0.0,"f_bus":23,"br_status":1,"t_bus":36,"b_to":0.0,"index":39,"angmin":-1.0472,"angmax":1.0472,"transformer":true,"tap":1.0},"46":{"br_r":0.0008,"rate_a":12.0,"shift":0.0,"rate_b":12.0,"br_x":0.0156,"rate_c":25.0,"g_to":0.0,"g_fr":0.0,"source_id":["branch",46],"b_fr":0.0,"f_bus":29,"br_status":1,"t_bus":38,"b_to":0.0,"index":46,"angmin":-1.0472,"angmax":1.0472,"transformer":true,"tap":1.025},"26":{"br_r":0.0007,"rate_a":6.0,"shift":0.0,"rate_b":6.0,"br_x":0.0089,"rate_c":6.0,"g_to":0.0,"g_fr":0.0,"source_id":["branch",26],"b_fr":0.0671,"f_bus":16,"br_status":1,"t_bus":17,"b_to":0.0671,"index":26,"angmin":-1.0472,"angmax":1.0472,"transformer":false,"tap":1.0},"43":{"br_r":0.0043,"rate_a":6.0,"shift":0.0,"rate_b":6.0,"br_x":0.0474,"rate_c":6.0,"g_to":0.0,"g_fr":0.0,"source_id":["branch",43],"b_fr":0.3901,"f_bus":26,"br_status":1,"t_bus":28,"b_to":0.3901,"index":43,"angmin":-1.0472,"angmax":1.0472,"transformer":false,"tap":1.0},"25":{"br_r":0.0009,"rate_a":6.0,"shift":0.0,"rate_b":6.0,"br_x":0.0094,"rate_c":6.0,"g_to":0.0,"g_fr":0.0,"source_id":["branch",25],"b_fr":0.0855,"f_bus":15,"br_status":1,"t_bus":16,"b_to":0.0855,"index":25,"angmin":-1.0472,"angmax":1.0472,"transformer":false,"tap":1.0},"35":{"br_r":0.0008,"rate_a":9.0,"shift":0.0,"rate_b":9.0,"br_x":0.014,"rate_c":9.0,"g_to":0.0,"g_fr":0.0,"source_id":["branch",35],"b_fr":0.12825,"f_bus":21,"br_status":1,"t_bus":22,"b_to":0.12825,"index":35,"angmin":-1.0472,"angmax":1.0472,"transformer":false,"tap":1.0},"42":{"br_r":0.0014,"rate_a":6.0,"shift":0.0,"rate_b":6.0,"br_x":0.0147,"rate_c":6.0,"g_to":0.0,"g_fr":0.0,"source_id":["branch",42],"b_fr":0.1198,"f_bus":26,"br_status":1,"t_bus":27,"b_to":0.1198,"index":42,"angmin":-1.0472,"angmax":1.0472,"transformer":false,"tap":1.0},"29":{"br_r":0.0003,"rate_a":6.0,"shift":0.0,"rate_b":6.0,"br_x":0.0059,"rate_c":6.0,"g_to":0.0,"g_fr":0.0,"source_id":["branch",29],"b_fr":0.034,"f_bus":16,"br_status":1,"t_bus":24,"b_to":0.034,"index":29,"angmin":-1.0472,"angmax":1.0472,"transformer":false,"tap":1.0},"34":{"br_r":0.0009,"rate_a":9.0,"shift":0.0,"rate_b":9.0,"br_x":0.018,"rate_c":25.0,"g_to":0.0,"g_fr":0.0,"source_id":["branch",34],"b_fr":0.0,"f_bus":20,"br_status":1,"t_bus":34,"b_to":0.0,"index":34,"angmin":-1.0472,"angmax":1.0472,"transformer":true,"tap":1.009},"44":{"br_r":0.0057,"rate_a":6.0,"shift":0.0,"rate_b":6.0,"br_x":0.0625,"rate_c":6.0,"g_to":0.0,"g_fr":0.0,"source_id":["branch",44],"b_fr":0.5145,"f_bus":26,"br_status":1,"t_bus":29,"b_to":0.5145,"index":44,"angmin":-1.0472,"angmax":1.0472,"transformer":false,"tap":1.0},"37":{"br_r":0.0,"rate_a":9.0,"shift":0.0,"rate_b":9.0,"br_x":0.0143,"rate_c":25.0,"g_to":0.0,"g_fr":0.0,"source_id":["branch",37],"b_fr":0.0,"f_bus":22,"br_status":1,"t_bus":35,"b_to":0.0,"index":37,"angmin":-1.0472,"angmax":1.0472,"transformer":true,"tap":1.025},"28":{"br_r":0.0008,"rate_a":6.0,"shift":0.0,"rate_b":6.0,"br_x":0.0135,"rate_c":6.0,"g_to":0.0,"g_fr":0.0,"source_id":["branch",28],"b_fr":0.1274,"f_bus":16,"br_status":1,"t_bus":21,"b_to":0.1274,"index":28,"angmin":-1.0472,"angmax":1.0472,"transformer":false,"tap":1.0},"38":{"br_r":0.0022,"rate_a":6.0,"shift":0.0,"rate_b":6.0,"br_x":0.035,"rate_c":6.0,"g_to":0.0,"g_fr":0.0,"source_id":["branch",38],"b_fr":0.1805,"f_bus":23,"br_status":1,"t_bus":24,"b_to":0.1805,"index":38,"angmin":-1.0472,"angmax":1.0472,"transformer":false,"tap":1.0},"45":{"br_r":0.0014,"rate_a":6.0,"shift":0.0,"rate_b":6.0,"br_x":0.0151,"rate_c":6.0,"g_to":0.0,"g_fr":0.0,"source_id":["branch",45],"b_fr":0.1245,"f_bus":28,"br_status":1,"t_bus":29,"b_to":0.1245,"index":45,"angmin":-1.0472,"angmax":1.0472,"transformer":false,"tap":1.0},"31":{"br_r":0.0013,"rate_a":6.0,"shift":0.0,"rate_b":6.0,"br_x":0.0173,"rate_c":6.0,"g_to":0.0,"g_fr":0.0,"source_id":["branch",31],"b_fr":0.1608,"f_bus":17,"br_status":1,"t_bus":27,"b_to":0.1608,"index":31,"angmin":-1.0472,"angmax":1.0472,"transformer":false,"tap":1.0},"27":{"br_r":0.0016,"rate_a":6.0,"shift":0.0,"rate_b":6.0,"br_x":0.0195,"rate_c":25.0,"g_to":0.0,"g_fr":0.0,"source_id":["branch",27],"b_fr":0.152,"f_bus":16,"br_status":1,"t_bus":19,"b_to":0.152,"index":27,"angmin":-1.0472,"angmax":1.0472,"transformer":false,"tap":1.0},"36":{"br_r":0.0006,"rate_a":6.0,"shift":0.0,"rate_b":6.0,"br_x":0.0096,"rate_c":6.0,"g_to":0.0,"g_fr":0.0,"source_id":["branch",36],"b_fr":0.0923,"f_bus":22,"br_status":1,"t_bus":23,"b_to":0.0923,"index":36,"angmin":-1.0472,"angmax":1.0472,"transformer":false,"tap":1.0},"41":{"br_r":0.0006,"rate_a":9.0,"shift":0.0,"rate_b":9.0,"br_x":0.0232,"rate_c":25.0,"g_to":0.0,"g_fr":0.0,"source_id":["branch",41],"b_fr":0.0,"f_bus":25,"br_status":1,"t_bus":37,"b_to":0.0,"index":41,"angmin":-1.0472,"angmax":1.0472,"transformer":true,"tap":1.025},"33":{"br_r":0.0007,"rate_a":9.0,"shift":0.0,"rate_b":9.0,"br_x":0.0142,"rate_c":25.0,"g_to":0.0,"g_fr":0.0,"source_id":["branch",33],"b_fr":0.0,"f_bus":19,"br_status":1,"t_bus":33,"b_to":0.0,"index":33,"angmin":-1.0472,"angmax":1.0472,"transformer":true,"tap":1.07}},"gen":{"7":{"ncost":3,"qc1max":0.0,"pg":5.6,"model":2,"shutdown":0.0,"startup":0.0,"qc2max":0.0,"ramp_agc":0.0,"qg":1.0016500000000002,"gen_bus":36,"pmax":5.8,"ramp_10":0.0,"vg":1.0636,"mbase":100.0,"source_id":["gen",7],"pc2":0.0,"index":7,"cost":[100.0,30.0,0.2],"qmax":2.4,"gen_status":1,"qmin":0.0,"qc1min":0.0,"qc2min":0.0,"pc1":0.0,"ramp_q":0.0,"ramp_30":0.0,"pmin":0.0,"apf":0.0},"4":{"ncost":3,"qc1max":0.0,"pg":6.32,"model":2,"shutdown":0.0,"startup":0.0,"qc2max":0.0,"ramp_agc":0.0,"qg":1.0829300000000002,"gen_bus":33,"pmax":6.52,"ramp_10":0.0,"vg":0.9972,"mbase":100.0,"source_id":["gen",4],"pc2":0.0,"index":4,"cost":[100.0,30.0,0.2],"qmax":2.5,"gen_status":1,"qmin":0.0,"qc1min":0.0,"qc2min":0.0,"pc1":0.0,"ramp_q":0.0,"ramp_30":0.0,"pmin":0.0,"apf":0.0},"9":{"ncost":3,"qc1max":0.0,"pg":8.3,"model":2,"shutdown":0.0,"startup":0.0,"qc2max":0.0,"ramp_agc":0.0,"qg":0.21732700000000002,"gen_bus":38,"pmax":8.65,"ramp_10":0.0,"vg":1.0265,"mbase":100.0,"source_id":["gen",9],"pc2":0.0,"index":9,"cost":[100.0,30.0,0.2],"qmax":3.0,"gen_status":1,"qmin":-1.5,"qc1min":0.0,"qc2min":0.0,"pc1":0.0,"ramp_q":0.0,"ramp_30":0.0,"pmin":0.0,"apf":0.0},"8":{"ncost":3,"qc1max":0.0,"pg":5.4,"model":2,"shutdown":0.0,"startup":0.0,"qc2max":0.0,"ramp_agc":0.0,"qg":-0.0136945,"gen_bus":37,"pmax":5.64,"ramp_10":0.0,"vg":1.0275,"mbase":100.0,"source_id":["gen",8],"pc2":0.0,"index":8,"cost":[100.0,30.0,0.2],"qmax":2.5,"gen_status":1,"qmin":0.0,"qc1min":0.0,"qc2min":0.0,"pc1":0.0,"ramp_q":0.0,"ramp_30":0.0,"pmin":0.0,"apf":0.0},"5":{"ncost":3,"qc1max":0.0,"pg":5.08,"model":2,"shutdown":0.0,"startup":0.0,"qc2max":0.0,"ramp_agc":0.0,"qg":1.66688,"gen_bus":34,"pmax":5.08,"ramp_10":0.0,"vg":1.0123,"mbase":100.0,"source_id":["gen",5],"pc2":0.0,"index":5,"cost":[100.0,30.0,0.2],"qmax":1.67,"gen_status":1,"qmin":0.0,"qc1min":0.0,"qc2min":0.0,"pc1":0.0,"ramp_q":0.0,"ramp_30":0.0,"pmin":0.0,"apf":0.0},"6":{"ncost":3,"qc1max":0.0,"pg":6.5,"model":2,"shutdown":0.0,"startup":0.0,"qc2max":0.0,"ramp_agc":0.0,"qg":2.10661,"gen_bus":35,"pmax":6.87,"ramp_10":0.0,"vg":1.0494,"mbase":100.0,"source_id":["gen",6],"pc2":0.0,"index":6,"cost":[100.0,30.0,0.2],"qmax":3.0,"gen_status":1,"qmin":-1.0,"qc1min":0.0,"qc2min":0.0,"pc1":0.0,"ramp_q":0.0,"ramp_30":0.0,"pmin":0.0,"apf":0.0}},"source_type":"matpower","name":"case39","shunt":{},"load":{"16":{"source_id":["bus",26],"load_bus":26,"status":1,"qd":0.17,"pd":1.39,"index":16},"11":{"source_id":["bus",20],"load_bus":20,"status":1,"qd":1.03,"pd":6.8,"index":11},"9":{"source_id":["bus",16],"load_bus":16,"status":1,"qd":0.32299999999999995,"pd":3.29,"index":9},"19":{"source_id":["bus",29],"load_bus":29,"status":1,"qd":0.26899999999999996,"pd":2.835,"index":19},"17":{"source_id":["bus",27],"load_bus":27,"status":1,"qd":0.755,"pd":2.81,"index":17},"8":{"source_id":["bus",15],"load_bus":15,"status":1,"qd":1.53,"pd":3.2,"index":8},"13":{"source_id":["bus",23],"load_bus":23,"status":1,"qd":0.846,"pd":2.475,"index":13},"14":{"source_id":["bus",24],"load_bus":24,"status":1,"qd":-0.922,"pd":3.0860000000000003,"index":14},"15":{"source_id":["bus",25],"load_bus":25,"status":1,"qd":0.47200000000000003,"pd":2.24,"index":15},"12":{"source_id":["bus",21],"load_bus":21,"status":1,"qd":1.15,"pd":2.74,"index":12},"18":{"source_id":["bus",28],"load_bus":28,"status":1,"qd":0.276,"pd":2.06,"index":18}},"arcs_from_sw":{},"arcs":[[29,16,24],[26,16,17],[28,16,21],[27,16,19],[25,16,15],[35,21,22],[28,21,16],[42,26,27],[44,26,29],[43,26,28],[40,26,25],[40,25,26],[41,25,37],[37,35,22],[34,34,20],[46,29,38],[44,29,26],[45,29,28],[33,19,33],[32,19,20],[27,19,16],[31,17,27],[26,17,16],[37,22,35],[36,22,23],[35,22,21],[29,24,16],[38,24,23],[41,37,25],[45,28,29],[43,28,26],[46,38,29],[34,20,34],[32,20,19],[39,23,36],[38,23,24],[36,23,22],[42,27,26],[31,27,17],[39,36,23],[25,15,16],[33,33,19]],"arcs_from":{},"bus_shunts":{"16":[],"21":[],"26":[],"25":[],"35":[],"34":[],"29":[],"19":[],"17":[],"22":[],"24":[],"37":[],"28":[],"38":[],"20":[],"23":[],"27":[],"36":[],"15":[],"33":[]},"bus_arcs_dc":{},"source_version":"2","ref_buses":38,"bus_arcs_sw":{},"arcs_from_dc":{},"arcs_sw":{},"bus_storage":{},"baseMVA":100,"arcs_dc":{}}